docs/ieee8500_v42_single_case/joint_selection_v3/mv_sensitivity/TOP20_RESPONSE_SLOT_00.csv
slot,bus,line,baseline_rho,baseline_node,dI_P_A_per_kw,dI_Q_A_per_kvar,dRho_P_per_kw,dRho_Q_per_kvar,dRho_AIDC_PF95_per_kw,dI_AIDC_PF95_A_per_kw,path_contains_target,certified_available_flexible_kw,performance_prediction
0,196-29518,line.tpx21459660c0,0.925229440767026,1,-0.0019030334109402247,-0.004741302557107474,-1.2198932121398887e-05,-3.039296510964906e-05,-2.21886166621963e-05,-0.0034614241993053507,False,,False
0,196-29518,line.tpx260595c0,0.8826540265430085,2,-0.0008510156171581684,-0.002506420414434274,-5.45522831507661e-06,-1.6066797528413446e-05,-1.0736129283793154e-05,-0.0016748361682785333,False,,False
0,196-29518,line.tpx226308719b0,0.8406179561639655,1,-0.0015539323619435663,-0.0027078133364994983,-9.96110488427071e-06,-1.7357777798043816e-05,-1.566633054771428e-05,-0.002443947565442296,False,,False
0,196-29518,line.tpx226308710b0,0.8270825015128497,2,-0.0015259829178546624,-0.0026591098791186596,-9.781941781139558e-06,-1.7045576148178032e-05,-1.5384551724661627e-05,-0.0023999900690450542,False,,False
0,196-29518,line.tpx21197413c0,0.8419680040368701,1,-0.0017291519978641645,-0.004293623687743775,-1.1084307678599359e-05,-2.7523228767589725e-05,-2.0130755497707734e-05,-0.003140397857644998,False,,False
0,196-29518,line.tpx2224230689c0,0.8323084177955936,2,-0.0019262925944474318,-0.004403298156375968,-1.234802945154767e-05,-2.8226270233189243e-05,-2.162555582568026e-05,-0.003373586708811605,False,,False
0,196-29518,line.tpx226308725b0,0.7843565936279969,2,-0.0014437788673618002,-0.002515864760297859,-9.2549927395158e-06,-1.6127338206994857e-05,-1.4555792466998797e-05,-0.002270703624851337,False,,False
0,196-29518,line.ln6291242-1,0.776414097648664,1,-0.053478644939275455,-0.004762630092585596,-0.00013369661234818864,-1.1906575231424021e-05,-0.00013761011437387407,-0.055044045749554876,True,,False
0,196-29518,line.ln5654466-1,0.776413805807654,1,-0.053478542572548804,-0.004762222600334098,-0.00013369635643140088,-1.1905556500824144e-05,-0.00013760952361653066,-0.05504380944660218,True,,False
0,196-29518,line.ln6321409-1,0.7764135855439993,1,-0.053478466663335666,-0.004761921666528224,-0.00013369616665831474,-1.1904804166351646e-05,-0.00013760908656306164,-0.055043634625230334,True,,False
0,196-29518,line.xj171_48332_sw,0.7764135854574563,1,-0.05347846656931665,-0.004761921136037017,-0.00013369616642328053,-1.1904802840134732e-05,-0.000137609085892121,-0.055043634356847296,True,,False
0,196-29518,line.ln5513564-1,0.7764135001342729,1,-0.05347843748219816,-0.00476180602305476,-0.00013369609370550428,-1.1904515057670206e-05,-0.00013760891858482293,-0.055043567433921234,True,,False
0,196-29518,line.ln5775442-1,0.7767426330670524,1,-0.05348021846566553,-0.0047678851191506055,-0.0001337005461641838,-1.1919712797847648e-05,-0.0001376183662991334,-0.05504734651964916,True,,False
0,196-29518,line.ln5896798-1,0.7767424448883185,1,-0.05348015744419854,-0.004767646455661634,-0.0001337003936104919,-1.191911613918073e-05,-0.00013761801763322148,-0.05504720705328686,True,,False
0,196-29518,line.ln5714974-1,0.7767419091052001,1,-0.053479986899617415,-0.004766983793558666,-0.00013369996724904576,-1.191745948392331e-05,-0.00013761704675552445,-0.05504681870220539,True,,False
0,196-29518,line.ln5473414-1,0.776741425734302,1,-0.05347983708051629,-0.004766405653100492,-0.0001336995927013196,-1.191601413275123e-05,-0.0001376161971438416,-0.0550464788575251,True,,False
0,196-29518,line.ln5742828-2,0.7767411046879894,1,-0.053479739464222575,-0.004766031109625146,-0.00013369934866053201,-1.191507777403844e-05,-0.0001376156453368284,-0.05504625813474434,True,,False
0,196-29518,line.ln5742828-1,0.7767409860998532,1,-0.05347970379594358,-0.004765894577815288,-0.00013369925948986117,-1.1914736444518237e-05,-0.00013761544397656962,-0.055046177590629596,True,,False
0,196-29518,line.ln5815900-1,0.776740893514111,1,-0.053479676161430234,-0.004765788621170941,-0.00013369919040356892,-1.1914471552909589e-05,-0.00013761528782461603,-0.055046115129851414,True,,False
0,196-29518,line.a8735_48332_sw,0.77674089335755,1,-0.05347967573425194,-0.00476578802027916,-0.0001336991893356454,-1.1914470050722326e-05,-0.00013761528626294743,-0.055046114505169545,True,,False
0,196-29519,line.tpx21459660c0,0.925229440767026,1,-0.0018908542029265618,-0.00473120617724021,-1.2120860275188772e-05,-3.0328244725930098e-05,-2.2089272254576683e-05,-0.0034459264717094703,False,,False
0,196-29519,line.tpx260595c0,0.8826540265430085,2,-0.0008437809261465645,-0.0025016048426209636,-5.408852090715843e-06,-1.6035928478319583e-05,-1.0679606893324565e-05,-0.0016660186753545468,False,,False
0,196-29519,line.tpx226308719b0,0.8406179561639655,1,-0.0014973006853296056,-0.002701114277172678,-9.598081316231077e-06,-1.7314835110082694e-05,-1.528919240070817e-05,-0.0023851140145079593,False,,False
0,196-29519,line.tpx226308710b0,0.8270825015128497,2,-0.001470369831523044,-0.002652531310374684,-9.425447637989581e-06,-1.7003405835769314e-05,-1.501419687011248e-05,-0.002342214711732464,False,,False
0,196-29519,line.tpx21197413c0,0.8419680040368701,1,-0.0017176766726834103,-0.004284474884514111,-1.1010747901774032e-05,-2.7464582593006437e-05,-2.0037919655467334e-05,-0.003125915466261244,False,,False
0,196-29519,line.tpx2224230689c0,0.8323084177955936,2,-0.0017376389795629166,-0.004212921437726891,-1.1138711407454593e-05,-2.700590665211111e-05,-2.0015123669947645e-05,-0.0031223592925110296,False,,False
0,196-29519,line.tpx226308725b0,0.7843565936279969,2,-0.001391161635766025,-0.002509640576860761,-8.917702793376225e-06,-1.6087439595247055e-05,-1.4205388481359017e-05,-0.0022160406030920705,False,,False
0,196-29519,line.ln6291242-1,0.776414097648664,1,-0.05227848798884338,-0.004467545411955598,-0.00013069621997213732,-1.1168863529920081e-05,-0.00013436724788733393,-0.05374689915491794,True,,False
0,196-29519,line.ln5654466-1,0.776413805807654,1,-0.052278394113500326,-0.004467141020455756,-0.00013069598528375748,-1.1167852551119406e-05,-0.00013436668090629163,-0.05374667236251662,True,,False
0,196-29519,line.ln6321409-1,0.7764135855439993,1,-0.052278324462093906,-0.004466842390485226,-0.00013069581115526807,-1.1167105976206404e-05,-0.00013436626139049502,-0.053746504556185556,True,,False
0,196-29519,line.xj171_48332_sw,0.7764135854574563,1,-0.05227832496589713,-0.00446684228131744,-0.00013069581241476058,-1.1167105703313585e-05,-0.000134366262560292,-0.053746505024107064,True,,False
0,196-29519,line.ln5513564-1,0.7764135001342729,1,-0.05227829774364068,-0.004466727790003233,-0.00013069574435908837,-1.116681947499476e-05,-0.00013436610042592094,-0.05374644017037545,True,,False
0,196-29519,line.ln5775442-1,0.7767426330670524,1,-0.05227994551879078,-0.004472758756094208,-0.00013069986379699028,-1.1181896890199994e-05,-0.00013437517557054798,-0.05375007022821853,True,,False
0,196-29519,line.ln5896798-1,0.7767424448883185,1,-0.052279889466831264,-0.004472521988020617,-0.0001306997236670826,-1.1181304970075967e-05,-0.000134374840885904,-0.05374993635435661,True,,False
0,196-29519,line.ln5714974-1,0.7767419091052001,1,-0.05227973294068988,-0.004471864381713431,-0.0001306993323517136,-1.1179660954263593e-05,-0.0001343739092086688,-0.05374956368347459,True,,False
0,196-29519,line.ln5473414-1,0.776741425734302,1,-0.05227959529850068,-0.004471290697409813,-0.00013069898824624726,-1.117822674351343e-05,-0.0001343730937009254,-0.0537492374803734,True,,False
0,196-29519,line.ln5742828-2,0.7767411046879894,1,-0.05227950559674355,-0.00447091907540198,-0.00013069876399185443,-1.117729768845832e-05,-0.00013437256408090312,-0.053749025632369156,True,,False
0,196-29519,line.ln5742828-1,0.7767409860998532,1,-0.0522794728275926,-0.004470783566290493,-0.00013069868206899704,-1.1176958915726232e-05,-0.00013437237080883343,-0.053748948323527154,True,,False
0,196-29519,line.ln5815900-1,0.776740893514111,1,-0.05227944743535318,-0.0044706785628250145,-0.00013069861858838738,-1.1176696407044773e-05,-0.0001343722210457927,-0.053748888418317646,True,,False
0,196-29519,line.a8735_48332_sw,0.77674089335755,1,-0.05227944732399692,-0.004470678153211338,-0.00013069861830999896,-1.1176695383030566e-05,-0.00013437222043082708,-0.05374888817232788,True,,False
0,196-29520,line.tpx21459660c0,0.925229440767026,1,-0.002509814758752782,-0.004964856754227753,-1.6088556145876787e-05,-3.1826004834811794e-05,-2.6549258066425074e-05,-0.004141684258357366,False,,False
0,196-29520,line.tpx260595c0,0.8826540265430085,2,-0.0008615496473538542,-0.002507500565414489,-5.522754149722697e-06,-1.607372157313991e-05,-1.0805930941884377e-05,-0.0016857252269326089,False,,False
0,196-29520,line.tpx226308719b0,0.8406179561639655,1,-0.0015007152224058018,-0.0027032778829720883,-9.619969374430326e-06,-1.7328704378039017e-05,-1.531563906683513e-05,-0.0023892396944202943,False,,False
0,196-29520,line.tpx226308710b0,0.8270825015128497,2,-0.0014737229534205198,-0.0026546559997626673,-9.446942009105896e-06,-1.7017025639498584e-05,-1.5040167854230261e-05,-0.0023462661852602126,False,,False
0,196-29520,line.tpx21197413c0,0.8419680040368701,1,-0.002244529574213061,-0.0044616276146740574,-1.4388010091070935e-05,-2.8600177017112927e-05,-2.3788433681897787e-05,-0.0037109956543835095,False,,False
0,196-29520,line.tpx2224230689c0,0.8323084177955936,2,-0.001688084717784477,-0.004138148442450529,-1.0821055883236674e-05,-2.6526592579789732e-05,-1.9539925228769133e-05,-0.003048228335688636,False,,False
0,196-29520,line.tpx226308725b0,0.7843565936279969,2,-0.001394334125151886,-0.0025116508093248058,-8.938039263828301e-06,-1.610032570076303e-05,-1.4229960409871852e-05,-0.002219873823936577,False,,False
0,196-29520,line.ln6291242-1,0.776414097648664,1,-0.05272141433630395,-0.004570176675770199,-0.00013180353584074656,-1.1425441689416616e-05,-0.00013555889691870573,-0.05422355876748879,True,,False
0,196-29520,line.ln5654466-1,0.776413805807654,1,-0.052721318839019204,-0.004569772063888422,-0.00013180329709755467,-1.1424430159723276e-05,-0.00013555832570178174,-0.05422333028070974,True,,False
0,196-29520,line.ln6321409-1,0.7764135855439993,1,-0.052721247936830196,-0.004569473236557542,-0.0001318031198420666,-1.1423683091427161e-05,-0.00013555790289681926,-0.05422316115872688,True,,False
0,196-29520,line.xj171_48332_sw,0.7764135854574563,1,-0.0527212479100001,-0.004569473071995844,-0.00013180311977500914,-1.1423682679978509e-05,-0.00013555790269452516,-0.05422316107780797,True,,False
0,196-29520,line.ln5513564-1,0.7764135001342729,1,-0.05272122065642293,-0.0045693584904711315,-0.0001318030516410662,-1.1423396226228899e-05,-0.00013555774040778786,-0.054223096163104875,True,,False
0,196-29520,line.ln5775442-1,0.7767426330670524,1,-0.05272289532024388,-0.004575393650412707,-0.00013180723830064078,-1.143848412604731e-05,-0.00013556688622021329,-0.05422675448807083,True,,False
0,196-29520,line.ln5896798-1,0.7767424448883185,1,-0.05272283826437274,-0.004575156649337941,-0.00013180709566090743,-1.1437891623333751e-05,-0.0001355665488342557,-0.05422661953371351,True,,False
0,196-29520,line.ln5714974-1,0.7767419091052001,1,-0.05272267897481697,-0.004574498694353224,-0.00013180669743700912,-1.143624673588528e-05,-0.00013556560996199826,-0.054226243984812336,True,,False
0,196-29520,line.ln5473414-1,0.776741425734302,1,-0.05272253889148715,-0.0045739246327798355,-0.00013180634722870233,-1.1434811581945148e-05,-0.00013556478804140288,-0.05422591521656795,True,,False
0,196-29520,line.ln5742828-2,0.7767411046879894,1,-0.052722447614058865,-0.004573552771176992,-0.00013180611903512718,-1.1433881927924716e-05,-0.0001355642542853279,-0.05422570171414148,True,,False
0,196-29520,line.ln5742828-1,0.7767409860998532,1,-0.052722414204083634,-0.0045734172627476255,-0.00013180603551016246,-1.1433543156857962e-05,-0.00013556405941169824,-0.0542256237646994,True,,False
0,196-29520,line.ln5815900-1,0.776740893514111,1,-0.05272238823883413,-0.004573311937718927,-0.00013180597059708754,-1.1433279844319522e-05,-0.00013556390795197722,-0.054225563180787084,True,,False
0,196-29520,line.a8735_48332_sw,0.77674089335755,1,-0.05272238805309826,-0.004573311229762567,-0.00013180597013273676,-1.1433278074401976e-05,-0.0001355639069058827,-0.05422556276235721,True,,False
0,196-31070,line.tpx21459660c0,0.925229440767026,1,-0.0005841984139181022,-0.002186453933390453,-3.744861627685836e-06,-1.4015730342209487e-05,-8.351609413643205e-06,-0.0013028510685293491,False,,False
0,196-31070,line.tpx260595c0,0.8826540265430085,2,-0.0005368487911852071,-0.001953952617910204,-3.4413384050191453e-06,-1.2525337294289063e-05,-7.558217685655989e-06,-0.0011790819589649199,False,,False
0,196-31070,line.tpx226308719b0,0.8406179561639655,1,-0.0007321019828339104,-0.0020129303265861154,-4.692961428465203e-06,-1.2903399529362591e-05,-8.934103756539111e-06,-0.0013937201860152646,False,,False
0,196-31070,line.tpx226308710b0,0.8270825015128497,2,-0.0007189342005062827,-0.001976725220131925,-4.608552567342272e-06,-1.2671315513690384e-05,-8.773412568398643e-06,-0.0013686523606698357,False,,False
0,196-31070,line.tpx21197413c0,0.8419680040368701,1,-0.0005301995136619553,-0.0019801100264231764,-3.398714831182037e-06,-1.2693012989895003e-05,-7.570706447789363e-06,-0.001181030205852552,False,,False
0,196-31070,line.tpx2224230689c0,0.8323084177955936,2,-0.0005108432358156278,-0.0019078159187415622,-3.274636126981978e-06,-1.2229589222700898e-05,-7.294307717350492e-06,-0.001137912003913189,False,,False
0,196-31070,line.tpx226308725b0,0.7843565936279969,2,-0.0006802055211920788,-0.001870239874513402,-4.360291802507632e-06,-1.1988717144362226e-05,-8.300792569344827e-06,-0.0012949236408163456,False,,False
0,196-31070,line.ln6291242-1,0.776414097648664,1,-0.04685806985008867,-0.003629267063217867,-0.00011714517462524388,-9.073167658024683e-06,-0.00012012738061805951,-0.04805095224721755,True,,False
0,196-31070,line.ln5654466-1,0.776413805807654,1,-0.046858039506815885,-0.003628885909250812,-0.00011714509876703527,-9.072214773142573e-06,-0.0001201269915617361,-0.04805079662469417,True,,False
0,196-31070,line.ln6321409-1,0.7764135855439993,1,-0.04685801688864899,-0.003628604435732541,-0.00011714504222165578,-9.071511089309148e-06,-0.00012012670372666549,-0.04805068149065579,True,,False
0,196-31070,line.xj171_48332_sw,0.7764135854574563,1,-0.0468580168808046,-0.0036286036342971784,-0.00011714504220200483,-9.071509085745166e-06,-0.00012012670304847491,-0.048050681219392335,True,,False
0,196-31070,line.ln5513564-1,0.7764135001342729,1,-0.046858008012691243,-0.0036284963118191627,-0.00011714502003173921,-9.071240779534584e-06,-0.00012012659269022255,-0.04805063707608633,True,,False
0,196-31070,line.ln5775442-1,0.7767426330670524,1,-0.04685868080457567,-0.003634177237131553,-0.00011714670201140587,-9.085443092804457e-06,-0.00012013294274451778,-0.04805317709782365,True,,False
0,196-31070,line.ln5896798-1,0.7767424448883185,1,-0.0468586620209237,-0.003633954047870702,-0.0001171466550523026,-9.084885119636787e-06,-0.00012013271238850318,-0.04805308495540919,True,,False
0,196-31070,line.ln5714974-1,0.7767419091052001,1,-0.04685860917379614,-0.0036333343059311574,-0.00011714652293448591,-9.083335764825673e-06,-0.0001201320710223868,-0.04805282840895679,True,,False
0,196-31070,line.ln5473414-1,0.776741425734302,1,-0.04685856207029815,-0.0036327936272755323,-0.00011714640517573871,-9.08198406818217e-06,-0.00012013150898243785,-0.048052603592978686,True,,False
0,196-31070,line.ln5742828-2,0.7767411046879894,1,-0.046858531061133135,-0.0036324433902450437,-0.0001171463276528617,-9.081108475639255e-06,-0.00012013114366620939,-0.048052457466468704,True,,False
0,196-31070,line.ln5742828-1,0.7767409860998532,1,-0.046858519739714666,-0.0036323157519859706,-0.00011714629934928,-9.080789379944942e-06,-0.00012013101048094493,-0.04805240419238326,True,,False
0,196-31070,line.ln5815900-1,0.776740893514111,1,-0.04685851080040493,-0.003632216689652523,-0.00011714627700104563,-9.080541724160174e-06,-0.00012013090673219054,-0.048052362692859105,True,,False
0,196-31070,line.a8735_48332_sw,0.77674089335755,1,-0.046858510982417556,-0.0036322159688211286,-0.00011714627745607054,-9.08053992204616e-06,-0.00012013090659488922,-0.048052362637945906,True,,False
0,196-35813,line.tpx21459660c0,0.925229440767026,1,-0.002473334194476706,-0.004927829108865467,-1.585470637488484e-05,-3.158864813374018e-05,-2.62373929205332e-05,-0.004093033295598507,False,,False
0,196-35813,line.tpx260595c0,0.8826540265430085,2,-0.0008614542985156959,-0.0025078354812819725,-5.522142939251573e-06,-1.6075868469744847e-05,-1.080602538220276e-05,-0.0016857399596166647,False,,False
0,196-35813,line.tpx226308719b0,0.8406179561639655,1,-0.0014974978188604382,-0.002702284399020982,-9.599344992727854e-06,-1.732233589113452e-05,-1.5292921464713108e-05,-0.0023856957484914517,False,,False
0,196-35813,line.tpx226308710b0,0.8270825015128497,2,-0.0014705634213498797,-0.002653680386885071,-9.426688598379585e-06,-1.701077171079035e-05,-1.5017858876542632e-05,-0.002342785984743899,False,,False
0,196-35813,line.tpx21197413c0,0.8419680040368701,1,-0.0023101171396717746,-0.004484345042158111,-1.4808443203007116e-05,-2.8745801552321204e-05,-2.4256731263880988e-05,-0.003784050077166785,False,,False
0,196-35813,line.tpx2224230689c0,0.8323084177955936,2,-0.001688275187632371,-0.004138815562740206,-1.0822276843791556e-05,-2.6530868991903045e-05,-1.9542551778012858e-05,-0.0030486380773719884,False,,False
0,196-35813,line.tpx226308725b0,0.7843565936279969,2,-0.0013913447969002846,-0.0025107277520177718,-8.918876903241113e-06,-1.609440866678913e-05,-1.4208853214267638e-05,-0.002216581101419985,False,,False
0,196-35813,line.ln6291242-1,0.776414097648664,1,-0.0527428825377001,-0.004570080083396988,-0.00013185720634423248,-1.1425200208470265e-05,-0.00013561248805124288,-0.05424499522050718,True,,False
0,196-35813,line.ln5654466-1,0.776413805807654,1,-0.05274278695364387,-0.004569675454234812,-0.00013185696738410302,-1.142418863558925e-05,-0.0001356119166031862,-0.05424476664127686,True,,False
0,196-35813,line.ln6321409-1,0.7764135855439993,1,-0.052742715970680365,-0.0045693765940484354,-0.00013185678992666539,-1.142344148508112e-05,-0.0001356114935692524,-0.05424459742772042,True,,False
0,196-35813,line.xj171_48332_sw,0.7764135854574563,1,-0.05274271606492675,-0.0045693755012621295,-0.00013185679016231022,-1.1423438753155324e-05,-0.00013561149290695662,-0.05424459716278532,True,,False
0,196-35813,line.ln5513564-1,0.7764135001342729,1,-0.05274268867546539,-0.004569261921147927,-0.00013185672168863904,-1.1423154802903124e-05,-0.0001356113311033509,-0.05424453244134575,True,,False
0,196-35813,line.ln5775442-1,0.7767426330670524,1,-0.05274436458043397,-0.004575297083562191,-0.00013186091145106493,-1.1438242708883273e-05,-0.0001356204800206529,-0.05424819200827207,True,,False
0,196-35813,line.ln5896798-1,0.7767424448883185,1,-0.052744307514728916,-0.004575060165933564,-0.00013186076878679565,-1.1437650414836131e-05,-0.00013562014267874472,-0.05424805707150825,True,,False
0,196-35813,line.ln5714974-1,0.7767419091052001,1,-0.052744148035742455,-0.004574402148762147,-0.0001318603700893317,-1.1436005371900926e-05,-0.00013561920328181563,-0.05424768131273661,True,,False
0,196-35813,line.ln5473414-1,0.776741425734302,1,-0.05274400785816624,-0.004573828087870879,-0.00013186001964538008,-1.1434570219681639e-05,-0.000135618381126141,-0.054247352450470035,True,,False
0,196-35813,line.ln5742828-2,0.7767411046879894,1,-0.052743916490555875,-0.004573456202848547,-0.00013185979122637415,-1.1433640507096943e-05,-0.0001356178471253861,-0.05424713885016387,True,,False
0,196-35813,line.ln5742828-1,0.7767409860998532,1,-0.05274388318619572,-0.004573320604805531,-0.00013185970796553148,-1.1433301511987182e-05,-0.00013561765244223914,-0.05424706097688228,True,,False
0,196-35813,line.ln5815900-1,0.776740893514111,1,-0.05274385709191165,-0.004573215465967451,-0.00013185964272982575,-1.1433038664909745e-05,-0.00013561750081287697,-0.0542470003251333,True,,False
0,196-35813,line.a8735_48332_sw,0.77674089335755,1,-0.052743856837281555,-0.004573214794305613,-0.00013185964209316836,-1.1433036985752931e-05,-0.0001356174996243074,-0.05424699984973864,True,,False
0,196-36167,line.tpx21459660c0,0.925229440767026,1,-0.0006219824397106777,-0.0021434140484899444,-3.9870669211738985e-06,-1.373983364416631e-05,-8.50313184781314e-06,-0.0013264885682663994,False,,False
0,196-36167,line.tpx260595c0,0.8826540265430085,2,-0.0005691216900487461,-0.0019160664791257886,-3.6482159618267396e-06,-1.2282477430292094e-05,-7.68527106538188e-06,-0.001198902286203421,False,,False
0,196-36167,line.tpx226308719b0,0.8406179561639655,1,-0.000743108411910498,-0.0019781367828528573,-4.7635154609704244e-06,-1.2680363992656485e-05,-8.931349553238998e-06,-0.0013932905303038847,False,,False
0,196-36167,line.tpx226308710b0,0.8270825015128497,2,-0.0007297426626138304,-0.001942557481029894,-4.6778375808465e-06,-1.2452291545062e-05,-8.770707884761527e-06,-0.0013682304300246476,False,,False
0,196-36167,line.tpx21197413c0,0.8419680040368701,1,-0.0005642723814531792,-0.0019411611121142869,-3.6171306503907097e-06,-1.2443340462298114e-05,-7.707058875677107e-06,-0.0012023011845964705,False,,False
0,196-36167,line.tpx2224230689c0,0.8323084177955936,2,-0.0005436886775527228,-0.001870309365173739,-3.485183830420624e-06,-1.1989162597314529e-05,-7.4258310105628455e-06,-0.001158429637652501,False,,False
0,196-36167,line.tpx226308725b0,0.7843565936279969,2,-0.0006904317366362989,-0.0018379127375780513,-4.42584446558314e-06,-1.1781491907558728e-05,-8.298233590891099e-06,-0.0012945244401839754,False,,False
0,196-36167,line.ln6291242-1,0.776414097648664,1,-0.04701824745151839,-0.003500497345498843,-0.00011754561862881152,-8.751243363747108e-06,-0.0001204220132230272,-0.04816880528920466,True,,False
0,196-36167,line.ln5654466-1,0.776413805807654,1,-0.04701821163553177,-0.003500116209323778,-0.00011754552908882498,-8.750290523273918e-06,-0.00012042161049952236,-0.04816864419981539,True,,False
0,196-36167,line.ln6321409-1,0.7764135855439993,1,-0.047018184953856235,-0.0034998347173029742,-0.00011754546238462726,-8.749586793255215e-06,-0.00012042131249045316,-0.04816852499618688,True,,False
0,196-36167,line.xj171_48332_sw,0.7764135854574563,1,-0.04701818466233476,-0.00349983443857127,-0.00011754546165582136,-8.749586096423734e-06,-0.00012042131153260981,-0.048168524613050726,True,,False
0,196-36167,line.ln5513564-1,0.7764135001342729,1,-0.04701817465772251,-0.00349972669670251,-0.00011754543664427297,-8.749316741774038e-06,-0.00012042119798846941,-0.04816847919539875,True,,False
0,196-36167,line.ln5775442-1,0.7767426330670524,1,-0.047018929279317945,-0.0035054072423292837,-0.00011754732319829708,-8.763518105803225e-06,-0.00012042775230512178,-0.04817110092205045,True,,False
0,196-36167,line.ln5896798-1,0.7767424448883185,1,-0.047018907316129344,-0.0035051840314110905,-0.00011754726829033002,-8.762960078512183e-06,-0.00012042751398245389,-0.04817100559298094,True,,False
0,196-36167,line.ln5714974-1,0.7767419091052001,1,-0.0470188455205971,-0.0035045642730722193,-0.00011754711380146388,-8.761410682678328e-06,-0.00012042685023180453,-0.04817074009273365,True,,False
0,196-36167,line.ln5473414-1,0.776741425734302,1,-0.04701879063387082,-0.003504023563039027,-0.00011754697658467039,-8.760058907597568e-06,-0.00012042626870802823,-0.048170507483213956,True,,False
0,196-36167,line.ln5742828-2,0.7767411046879894,1,-0.04701875462336602,-0.003503673325354839,-0.00011754688655840617,-8.759183313389318e-06,-0.00012042589088786517,-0.04817035635514933,True,,False
0,196-36167,line.ln5742828-1,0.7767409860998532,1,-0.04701874130205397,-0.0035035457040635265,-0.00011754685325510161,-8.758864260161037e-06,-0.00012042575271683577,-0.04817030108674734,True,,False
0,196-36167,line.ln5815900-1,0.776740893514111,1,-0.047018730930261654,-0.0035034466537240405,-0.00011754682732567634,-8.758616634296779e-06,-0.00012042564539672489,-0.048170258158682824,True,,False
0,196-36167,line.a8735_48332_sw,0.77674089335755,1,-0.04701873081492636,-0.0035034460378824406,-0.00011754682703729591,-8.758615094695e-06,-0.00012042564460230182,-0.04817025784093018,True,,False
0,198-5320,line.tpx21459660c0,0.925229440767026,1,-0.0003401489985463968,-0.001613602027148886,-2.1804422983828786e-06,-1.0343602738105417e-05,-5.580220108682697e-06,-0.0008705143369546281,False,,False
0,198-5320,line.tpx260595c0,0.8826540265430085,2,-0.0003105855377611988,-0.0014437598517247352,-1.9909329344036664e-06,-9.254870844355167e-06,-5.032861876426495e-06,-0.0007851264527185116,False,,False
0,198-5320,line.tpx226308719b0,0.8406179561639655,1,-0.000397436010885599,-0.0014824509594575375,-2.5476667364632277e-06,-9.50289076578903e-06,-5.6711158844290775e-06,-0.000884694077966447,False,,False
0,198-5320,line.tpx226308710b0,0.8270825015128497,2,-0.00039028761895565367,-0.001455787198580083,-2.5018437112556136e-06,-9.331969221704206e-06,-5.569113664448153e-06,-0.0008687817316517922,False,,False
0,198-5320,line.tpx21197413c0,0.8419680040368701,1,-0.00030853744851810916,-0.0014612707629595434,-1.9778041571716365e-06,-9.367120275383112e-06,-5.056627702988721e-06,-0.0007888339216655014,False,,False
0,198-5320,line.tpx2224230689c0,0.8323084177955936,2,-0.0002972855417624487,-0.0014080305385419933,-1.905676549729396e-06,-9.025836785525598e-06,-4.872325637070345e-06,-0.0007600827993876366,False,,False
0,198-5320,line.tpx226308725b0,0.7843565936279969,2,-0.00036926299097927995,-0.0013773645603976092,-2.367070454978304e-06,-8.8292600025075e-06,-5.269107878294009e-06,-0.0008219808290186464,False,,False
0,198-5320,line.ln6291242-1,0.776414097648664,1,-0.04557397167300792,-0.0034616178320163726,-0.00011393492918254644,-8.654044580058695e-06,-0.00011677937608152103,-0.046711750432595414,True,,False
0,198-5320,line.ln5654466-1,0.776413805807654,1,-0.04557396161538918,-0.0034612442616435146,-0.00011393490403843742,-8.65311065412211e-06,-0.00011677904397080123,-0.046711617588332956,True,,False
0,198-5320,line.ln6321409-1,0.7764135855439993,1,-0.045573953917767085,-0.003460968355852856,-0.00011393488479444214,-8.652420889598833e-06,-0.00011677879801217083,-0.04671151920486294,True,,False
0,198-5320,line.xj171_48332_sw,0.7764135854574563,1,-0.045573954284066076,-0.0034609670616418953,-0.00011393488571015409,-8.652417654075872e-06,-0.00011677879786441782,-0.046711519145775364,True,,False
0,198-5320,line.ln5513564-1,0.7764135001342729,1,-0.04557395083858751,-0.0034608623747374168,-0.00011393487709648875,-8.652155936872408e-06,-0.00011677870322846764,-0.04671148129137527,True,,False
0,198-5320,line.ln5775442-1,0.7767426330670524,1,-0.04557431541752521,-0.003466429881740396,-0.00011393578854385078,-8.666074704344329e-06,-0.00011678418955346137,-0.04671367582137033,True,,False
0,198-5320,line.ln5896798-1,0.7767424448883185,1,-0.04557430854777067,-0.0034662111001750873,-0.00011393577136942223,-8.665527750417734e-06,-0.0001167839926039709,-0.04671359704159276,True,,False
0,198-5320,line.ln5714974-1,0.7767419091052001,1,-0.04557428868994862,-0.003465603662959893,-0.000113935721724856,-8.66400915738863e-06,-0.00011678344382201375,-0.04671337752881318,True,,False
0,198-5320,line.ln5473414-1,0.776741425734302,1,-0.04557427043835105,-0.003465073719070233,-0.00011393567609585542,-8.6626842976667e-06,-0.00011678296273268099,-0.04671318509308244,True,,False
0,198-5320,line.ln5742828-2,0.7767411046879894,1,-0.045574258131381384,-0.0034647304068471385,-0.00011393564532841127,-8.661826017108964e-06,-0.00011678264986205973,-0.046713059944841935,True,,False
0,198-5320,line.ln5742828-1,0.7767409860998532,1,-0.04557425354062161,-0.0034646053117342035,-0.00011393563385159178,-8.661513279328847e-06,-0.00011678253559330282,-0.04671301423730691,True,,False
0,198-5320,line.ln5815900-1,0.776740893514111,1,-0.04557424984955105,-0.003464508174687353,-0.00011393562462386209,-8.661270436693957e-06,-0.00011678244654705898,-0.04671297861883302,True,,False
0,198-5320,line.a8735_48332_sw,0.77674089335755,1,-0.04557424987234526,-0.003464507590450694,-0.00011393562468087204,-8.661268976140057e-06,-0.00011678244612400808,-0.04671297844959793,True,,False
0,221-242079,line.tpx21459660c0,0.925229440767026,1,-0.0003388905913510598,-0.0016132448138677091,-2.17237558558514e-06,-1.03413129094454e-05,-5.571400765600827e-06,-0.0008691385194316095,False,,False
0,221-242079,line.tpx260595c0,0.8826540265430085,2,-0.000309466223498589,-0.001443441858953065,-1.9837578429382496e-06,-9.252832429196278e-06,-5.0250167902985955e-06,-0.0007839026192862921,False,,False
0,221-242079,line.tpx226308719b0,0.8406179561639655,1,-0.00039626656963775986,-0.001482112852201567,-2.5401703181993085e-06,-9.500723411548506e-06,-5.662907091276006e-06,-0.0008834135062377247,False,,False
0,221-242079,line.tpx226308710b0,0.8270825015128497,2,-0.0003891392131123439,-0.0014554551719356823,-2.4944821352956836e-06,-9.329840845784254e-06,-5.56105252515349e-06,-0.0008675241939279721,False,,False
0,221-242079,line.tpx21197413c0,0.8419680040368701,1,-0.0003073977941028261,-0.0014609475099405245,-1.9704986801705182e-06,-9.365048140641541e-06,-5.04864114823426e-06,-0.0007875880191209157,False,,False
0,221-242079,line.tpx2224230689c0,0.8323084177955936,2,-0.0002961878097949011,-0.0014077191809747092,-1.8986398064302357e-06,-9.023840903676916e-06,-4.864632879131707e-06,-0.0007588827291366956,False,,False
0,221-242079,line.tpx226308725b0,0.7843565936279969,2,-0.00036817644979691977,-0.001377050420579451,-2.360105447407612e-06,-8.827246285758594e-06,-5.261480994035619e-06,-0.0008207910350712538,False,,False
0,221-242079,line.ln6291242-1,0.776414097648664,1,-0.04552301057051977,-0.003446890441381356,-0.00011380752642631276,-8.617226103457831e-06,-0.00011663987167725173,-0.04665594867089478,True,,False
0,221-242079,line.ln5654466-1,0.776413805807654,1,-0.04552300070483284,-0.0034465169056829836,-0.00011380750176209764,-8.616292264229664e-06,-0.00011663954007492553,-0.04665581602996108,True,,False
0,221-242079,line.ln6321409-1,0.7764135855439993,1,-0.045522993138916945,-0.003446241033742581,-0.00011380748284728348,-8.615602584305382e-06,-0.0001166392944732826,-0.04665571778932331,True,,False
0,221-242079,line.xj171_48332_sw,0.7764135854574563,1,-0.045522993222732566,-0.003446240291822278,-0.00011380748305683808,-8.615600729566797e-06,-0.0001166392940732141,-0.046655717629281515,True,,False
0,221-242079,line.ln5513564-1,0.7764135001342729,1,-0.0455229902395331,-0.003446135096027092,-0.0001138074755988594,-8.615337740047746e-06,-0.00011663920017476068,-0.04665568006989624,True,,False
0,221-242079,line.ln5775442-1,0.7767426330670524,1,-0.045523351659568334,-0.003451701759331627,-0.0001138083791489275,-8.629254398373476e-06,-0.00011664467790921766,-0.04665787116367856,True,,False
0,221-242079,line.ln5896798-1,0.7767424448883185,1,-0.04552334491253873,-0.0034514830927605544,-0.00011380836228130908,-8.628707731939134e-06,-0.00011664448136103144,-0.04665779254442271,True,,False
0,221-242079,line.ln5714974-1,0.7767419091052001,1,-0.04552332536229642,-0.003450875672086795,-0.00011380831340573883,-8.627189180210326e-06,-0.00011664393336164503,-0.046657573344659774,True,,False
0,221-242079,line.ln5473414-1,0.776741425734302,1,-0.04552330738212618,-0.003450345800985133,-0.00011380826845530656,-8.62586450245395e-06,-0.00011664345301068975,-0.046657381204280625,True,,False
0,221-242079,line.ln5742828-2,0.7767411046879894,1,-0.045523295256117535,-0.003450002522555451,-0.0001138082381403338,-8.625006306384186e-06,-0.00011664314062030975,-0.04665725624810849,True,,False
0,221-242079,line.ln5742828-1,0.7767409860998532,1,-0.045523290718080034,-0.0034498773960933704,-0.00011380822679518676,-8.624693490222324e-06,-0.00011664302645746246,-0.04665721058299177,True,,False
0,221-242079,line.ln5815900-1,0.776740893514111,1,-0.04552328716678744,-0.003449780144791248,-0.00011380821791701079,-8.62445036192705e-06,-0.00011664293766688031,-0.04665717506674196,True,,False
0,221-242079,line.a8735_48332_sw,0.77674089335755,1,-0.04552328704457409,-0.0034497801824215912,-0.0001138082176114219,-8.624450456073962e-06,-0.00011664293739223602,-0.046657174956897106,True,,False
0,221-308718,line.tpx21459660c0,0.925229440767026,1,-0.0008247472791964583,-0.0028579276468150283,-5.286841533336251e-06,-1.8320049018027973e-05,-1.1308350451659687e-05,-0.00176410267045579,False,,False
0,221-308718,line.tpx260595c0,0.8826540265430085,2,-0.0007411297095671898,-0.0024762899701897823,-4.750831471611594e-06,-1.5873653655074094e-05,-9.968249119148814e-06,-0.0015550468625824122,False,,False
0,221-308718,line.tpx226308719b0,0.8406179561639655,1,-0.0015435413477291604,-0.002770981032327313,-9.89449581878521e-06,-1.7762698925172238e-05,-1.5732812620567002e-05,-0.0024543187688072657,False,,False
0,221-308718,line.tpx226308710b0,0.8270825015128497,2,-0.0015157788001687322,-0.00272114142369162,-9.71653077030954e-06,-1.7443214254397876e-05,-1.5449838038959497e-05,-0.00241017473407995,False,,False
0,221-308718,line.tpx21197413c0,0.8419680040368701,1,-0.0007492249585965283,-0.0025883736749960917,-4.802724093588839e-06,-1.6592138942284063e-05,-1.0256296434836846e-05,-0.0015999822438311443,False,,False
0,221-308718,line.tpx2224230689c0,0.8323084177955936,2,-0.0007218112760511985,-0.0024936449496095747,-4.626995359302555e-06,-1.5984903523169613e-05,-9.880979070186017e-06,-0.001541432734947413,False,,False
0,221-308718,line.tpx226308725b0,0.7843565936279969,2,-0.0014341244413387244,-0.002574554691058495,-9.193105393212608e-06,-1.650355571192197e-05,-1.4617561834655198e-05,-0.0022803396462033306,False,,False
0,221-308718,line.ln6291242-1,0.776414097648664,1,-0.04845964981797124,-0.003932299429976638,-0.000121149124544917,-9.830748574912729e-06,-0.00012438033534350058,-0.04975213413740846,True,,False
0,221-308718,line.ln5654466-1,0.776413805807654,1,-0.048459600020407834,-0.003931910142966899,-0.00012114900005105733,-9.829775357406145e-06,-0.0001243798909685156,-0.049751956387392604,True,,False
0,221-308718,line.ln6321409-1,0.7764135855439993,1,-0.04845956285998909,-0.003931622659507639,-0.00012114890714998161,-9.829056648757994e-06,-0.00012437956183933098,-0.0497518247357303,True,,False
0,221-308718,line.xj171_48332_sw,0.7764135854574563,1,-0.048459563213612,-0.003931622112730793,-0.0001211489080339967,-9.829055281851407e-06,-0.00012437956227406561,-0.04975182490963635,True,,False
0,221-308718,line.ln5513564-1,0.7764135001342729,1,-0.04845954858706136,-0.00393151224878352,-0.00012114887146769115,-9.828780621945477e-06,-0.00012437943543141465,-0.04975177417255251,True,,False
0,221-308718,line.ln5775442-1,0.7767426330670524,1,-0.04846052054031702,-0.003937316152814674,-0.00012115130135076368,-9.843290382005598e-06,-0.0001243866344419889,-0.049754653776811195,True,,False
0,221-308718,line.ln5896798-1,0.7767424448883185,1,-0.04846049035472788,-0.003937088132147437,-0.00012115122588685079,-9.842720330333066e-06,-0.00012438637161115213,-0.049754548644453084,True,,False
0,221-308718,line.ln5714974-1,0.7767419091052001,1,-0.04846040564356713,-0.0039364551732035125,-0.00012115101410892226,-9.841137933008781e-06,-0.00012438563972437503,-0.04975425588974823,True,,False
0,221-308718,line.ln5473414-1,0.776741425734302,1,-0.04846033076734102,-0.0039359029320849,-0.0001211508269183259,-9.83975733021003e-06,-0.00012438499875158315,-0.04975399950064421,True,,False
0,221-308718,line.ln5742828-2,0.7767411046879894,1,-0.04846028177507833,-0.0039355451594076385,-0.00012115070443768916,-9.838862898514655e-06,-0.00012438458228546497,-0.049753832914189236,True,,False
0,221-308718,line.ln5742828-1,0.7767409860998532,1,-0.04846026380215562,-0.003935414738748477,-0.00012115065950540904,-9.838536846884516e-06,-0.00012438443018519655,-0.04975377207406888,True,,False
0,221-308718,line.ln5815900-1,0.776740893514111,1,-0.048460249843287784,-0.003935313562436704,-0.0001211506246082128,-9.838283906105083e-06,-0.00012438431215038655,-0.049753724860155536,True,,False
0,221-308718,line.a8735_48332_sw,0.77674089335755,1,-0.048460250175338615,-0.003935312538828839,-0.00012115062543838206,-9.838281347041011e-06,-0.00012438431213943215,-0.04975372485576273,True,,False
0,221-311359,line.tpx21459660c0,0.925229440767026,1,-0.0003401536664853211,-0.0016136036502132356,-2.180472221058327e-06,-1.034361314239396e-05,-5.580253451082415e-06,-0.0008705195383690058,False,,False
0,221-311359,line.tpx260595c0,0.8826540265430085,2,-0.00031059025639024185,-0.001443761718235237,-1.990963181985883e-06,-9.254882809173193e-06,-5.0328960566542176e-06,-0.0007851317848398887,False,,False
0,221-311359,line.tpx226308719b0,0.8406179561639655,1,-0.00039744115346707076,-0.0014824526820547135,-2.5476997017048753e-06,-9.502901808011721e-06,-5.67115247907381e-06,-0.0008846997867382301,False,,False
0,221-311359,line.tpx226308710b0,0.8270825015128497,2,-0.00039029267144030655,-0.0014557888890323056,-2.501876099014755e-06,-9.331980057869504e-06,-5.569149613882589e-06,-0.0008687873397612213,False,,False
0,221-311359,line.tpx21197413c0,0.8419680040368701,1,-0.0003085419026689351,-0.001461272466428909,-1.9778327093877834e-06,-9.367131195037182e-06,-5.0566598443215945e-06,-0.0007888389357196315,False,,False
0,221-311359,line.tpx2224230689c0,0.8323084177955936,2,-0.0002972898613933239,-0.001408032226166256,-1.9057042396908308e-06,-9.025847603594261e-06,-4.872356882758998e-06,-0.0007600876737137825,False,,False
0,221-311359,line.tpx226308725b0,0.7843565936279969,2,-0.00036926777092105567,-0.0013773661604261633,-2.3671010956349825e-06,-8.82927025913638e-06,-5.269141890141573e-06,-0.0008219861348643758,False,,False
0,221-311359,line.ln6291242-1,0.776414097648664,1,-0.04557420654762723,-0.0034616891429664065,-0.00011393551636906807,-8.654222857396032e-06,-0.00011678002186496974,-0.046712008745990526,True,,False
0,221-311359,line.ln5654466-1,0.776413805807654,1,-0.04557419651035843,-0.003461315547696131,-0.00011393549127591829,-8.653288869231446e-06,-0.00011677968978475585,-0.04671187591389463,True,,False
0,221-311359,line.ln6321409-1,0.7764135855439993,1,-0.04557418880111186,-0.003461039647220332,-0.00011393547200277965,-8.652599118030846e-06,-0.00011677944380136103,-0.04671177752054704,True,,False
0,221-311359,line.xj171_48332_sw,0.7764135854574563,1,-0.04557418896303034,-0.0034610389106433104,-0.00011393547240762247,-8.652597276614937e-06,-0.00011677944360095972,-0.04671177744036436,True,,False
0,221-311359,line.ln5513564-1,0.7764135001342729,1,-0.04557418581552497,-0.003460933765865093,-0.00011393546453880576,-8.652334414660512e-06,-0.00011677934933359673,-0.04671173973344165,True,,False
0,221-311359,line.ln5775442-1,0.7767426330670524,1,-0.04557455032187363,-0.003466501204798078,-0.00011393637580464633,-8.666253011990754e-06,-0.00011678483542114613,-0.046713934168474136,True,,False
0,221-311359,line.ln5896798-1,0.7767424448883185,1,-0.04557454345018641,-0.0034662824130577974,-0.00011393635862549933,-8.665706032640053e-06,-0.00011678463845858071,-0.046713855383419545,True,,False
0,221-311359,line.ln5714974-1,0.7767419091052001,1,-0.045574523603136186,-0.0034656749855912494,-0.00011393630900785601,-8.664187463980344e-06,-0.00011678408971155631,-0.046713635884616016,True,,False
0,221-311359,line.ln5473414-1,0.776741425734302,1,-0.04557450533425822,-0.003465145013194615,-0.00011393626333566775,-8.662862533037607e-06,-0.00011678360855562672,-0.046713443422235094,True,,False
0,221-311359,line.ln5742828-2,0.7767411046879894,1,-0.04557449301447036,-0.003464801712851795,-0.00011393623253613816,-8.662004282122826e-06,-0.00011678329566266319,-0.046713318265081245,True,,False
0,221-311359,line.ln5742828-1,0.7767409860998532,1,-0.04557448840012057,-0.00346467657334415,-0.00011393622100031031,-8.661691433375918e-06,-0.0001167831812984249,-0.046713272519364364,True,,False
0,221-311359,line.ln5815900-1,0.776740893514111,1,-0.045574484858235564,-0.0034645795107337563,-0.00011393621214561556,-8.661448776814407e-06,-0.00011678309268637536,-0.04671323707454211,True,,False
0,221-311359,line.a8735_48332_sw,0.77674089335755,1,-0.045574485169481704,-0.003464579279722102,-0.00011393621292371536,-8.66144819927639e-06,-0.0001167830932746476,-0.046713237309858394,True,,False
...
